Strict
#REFLECTION_FILTER+="${MODPATH}"

Class Event
	Field id:String
	Field x:Float
	Field y:Float
	Field data:Object
End
